/*--------------------------------*- C++ -*----------------------------------*\
| =========                 |                                                 |
| \\      /  F ield         | OpenFOAM: The Open Source CFD Toolbox           |
|  \\    /   O peration     | Version:  2.2.0                                 |
|   \\  /    A nd           | Web:      http://www.OpenFOAM.org               |
|    \\/     M anipulation  |                                                 |
\*---------------------------------------------------------------------------*/
FoamFile
{
    version     2.0;
    format      ascii;
    class       dictionary;
    object      blockMeshDict;
}
// * * * * * * * * * * * * * * * * * * * * * * * * * * * * * * * * * * * * * //

convertToMeters 1;

fastMerge yes;

vertices
(
    (0 28 0)         //0
    (54.0 0 0)      //1
    (54.0 84.98 0)  //2
    (0 84.98 0)     //3

    (0 28 169.96)      //4
    (54.0 0 169.96)     //5
    (54.0 84.98 169.96)   //6
    (0 84.98 169.96)    //7


    (198.0 0 0)     //8
    (252.0 28 0)    //9
    (252.0 84.98 0)    //10
    (198.0 84.98 0)    //11

    (198.0 0 169.96)   //12
    (252.0 28 169.96)  //13
    (252.0 84.98 169.96)  //14
    (198.0 84.98 169.96)  //15
);

blocks
(
    hex (0 1 2 3 4 5 6 7) (50 100 150) 
    simpleGrading
    (
        1
        (
        (0.1 0.25 10)
        (0.8 0.5 1.0)
        (0.1 0.25 0.1)
        )
        1
    )
    hex ( 1 8 11 2 5 12 15 6) (133 100 150) 
    simpleGrading
    (
        1
        (
        (0.1 0.25 10)
        (0.8 0.5 1.0)
        (0.1 0.25 0.1)
        )
        1
    )
    hex (8 9 10 11 12 13 14 15) (50 100 150) 
    simpleGrading
    (
        1
        (
        (0.1 0.25 10)
        (0.8 0.5 1.0)
        (0.1 0.25 0.1)
        )
        1
    )

);

edges
(
    BSpline 0 1 ((3 28 0) (9 27 0) (14 24 0) (20 19 0) (30 11 0) (40 4 0) (45 1.6639 0)
                 (50 0.3308 0) (54 0 0))
    BSpline 4 5 ((3 28 169.96) (9 27 169.96) (14 24 169.96) (20 19 169.96) (30 11 169.96) 
                 (40 4 169.96) (45 1.6639 169.96) (50 0.3308 169.96) (54 0 169.96))

    BSpline 8 9 ((198.0 0 0) (202.0 0.3308 0) (207.0 1.6639 0) (212.0 4 0)
                 (222.0 11 0) (232.0 19 0) (238.0 24 0)
                 (243.0  27 0) (249.0 28 0))
    BSpline 12 13 ((198.0 0 169.96) (202.0 0.3308 169.96) (207.0 1.6639 169.96) (212.0 4 169.96)
                 (222.0 11 169.96) (232.0 19 169.96) (238.0 24 169.96)
                 (243.0  27 169.96) (249.0 28 169.96))
);

boundary         
(
    inlet
    {
        type            cyclic;
        neighbourPatch  outlet;
        faces           ((7 3 0 4));
    }
    outlet
    {
        type            cyclic;
        neighbourPatch  inlet;
        faces           ((9 10 14 13));
    }
    bottomWall 
    {
        type            wall;
        faces           ((4 0 1 5) (1 5 12 8) (8 9 13 12));
    }
    topWall
    {
        type            wall;
        faces           ((3 2 6 7) (2 6 15 11) (10 11 15 14));
    }
    left
    {
        type            cyclic;
        neighbourPatch  right;
        faces           ((6 7 4 5) (6 5 12 15) (12 13 14 15));
    }
    right
    {
        type            cyclic;
        neighbourPatch  left;
        faces            ((3 2 1 0) (2 1 8 11) (8 9 10 11));
    }
);

mergePatchPairs
(
);


// ************************************************************************* //


