/*---------------------------------------------------------------------------*\
| =========                 |                                                 |
| \\      /  F ield         | OpenFOAM: The Open Source CFD Toolbox           |
|  \\    /   O peration     | Version:  1.1                                   |
|   \\  /    A nd           | Web:      http://www.openfoam.org               |
|    \\/     M anipulation  |                                                 |
\*---------------------------------------------------------------------------*/

// FoamX Case Dictionary.

FoamFile
{
    version         2.0;
    format          ascii;

    root            "";
    case            "";
    instance        "";
    local           "";

    class           dictionary;
    object          fvSolution;
}

// * * * * * * * * * * * * * * * * * * * * * * * * * * * * * * * * * * * * * //

solvers
{
	pcorr
	{
    	solver          PCG;
    	preconditioner
    	{
        	preconditioner  GAMG;
        	tolerance       1e-06;
        	relTol          0.01;
        	smoother        DICGaussSeidel;
        	nPreSweeps      0;
        	nPostSweeps     1;
        	nBottomSweeps   2;
        	cacheAgglomeration false;
        	nCellsInCoarsestLevel 10;
        	agglomerator    faceAreaPair;
        	mergeLevels     1;
    	}
    	tolerance       1e-06;
    	relTol          0.001;
    	maxIter         100;
	}

	p
	{
    	solver          PCG;
    	preconditioner
    	{
        	preconditioner  GAMG;
        	tolerance       1e-08;
        	relTol          0.01;
        	nVcycles        2;
        	smoother        DICGaussSeidel;
        	nPreSweeps      0;
        	nPostSweeps     1;
        	nFinestSweeps   2;
        	cacheAgglomeration true;
        	nCellsInCoarsestLevel 10;
        	agglomerator    faceAreaPair;
        	mergeLevels     1;
    	}
    	tolerance       1e-08;
    	relTol          0.001;
    	maxIter         150;
	}

	pFinal
	{
    	solver          PCG;
    	preconditioner  DIC;
    	tolerance       1e-05;
    	relTol          0;
	}

    "(U|k)"
    {
        solver          PBiCG;
        preconditioner  DILU;
        tolerance       1e-05;
        relTol          0.1;
    }

    "(U|k)Final"
    {
        $U;
        tolerance       1e-05;
        relTol          0;
    }

}

PIMPLE
{
    nOuterCorrectors 1;
    nCorrectors     3;
    nNonOrthogonalCorrectors 2;
    fluxGradp       no;
    pRefCell        1001;
    pRefValue       0;
}


// ************************************************************************* //
