/*--------------------------------*- C++ -*----------------------------------*\
| =========                 |                                                 |
| \\      /  F ield         | OpenFOAM: The Open Source CFD Toolbox           |
|  \\    /   O peration     | Version:  2.2.0                                 |
|   \\  /    A nd           | Web:      http://www.OpenFOAM.org               |
|    \\/     M anipulation  |                                                 |
\*---------------------------------------------------------------------------*/
FoamFile
{
    version     2.0;
    format      ascii;
    class       dictionary;
    object      blockMeshDict;
}
// * * * * * * * * * * * * * * * * * * * * * * * * * * * * * * * * * * * * * //


fastMerge yes;

vertices
(
    (0 0 0)
    (1 0 0)
    (1 1 0)
    (0 1 0)
    (0 0 1)
    (1 0 1)
    (1 1 1)
    (0 1 1)
    
);

blocks
(
    hex (0 1 2 3 4 5 6 7) (3 2 4) simpleGrading (1 1 1)
);

boundary         
(
    inlet
    {
        type            cyclic;
        neighbourPatch  outlet;
        faces           ((7 3 0 4));
    }
    outlet
    {
        type            cyclic;
        neighbourPatch  inlet;
        faces           ((1 2 5 6));
    }
    bottomWall 
    {
        type            wall;
        faces           ((4 0 1 5));
    }
    topWall
    {
        type            wall;
        faces           ((3 2 6 7));
    }
    left
    {
        type            cyclic;
        neighbourPatch  right;
        faces            ((3 2 1 0));
    }
    right
    {
        type            cyclic;
        neighbourPatch  left;
        faces           ((6 7 4 5));
    }
);

mergePatchPairs
(
);


// ************************************************************************* //


